729
time=0.0
H 0.0 0.0 0.0
H 0.0 0.0 1.0
H 0.0 0.0 2.0
H 0.0 0.0 3.0
H 0.0 0.0 4.0
H 0.0 0.0 5.0
H 0.0 0.0 6.0
H 0.0 0.0 7.0
H 0.0 0.0 8.0
H 0.0 1.0 0.0
H 0.0 1.0 1.0
H 0.0 1.0 2.0
H 0.0 1.0 3.0
H 0.0 1.0 4.0
H 0.0 1.0 5.0
H 0.0 1.0 6.0
H 0.0 1.0 7.0
H 0.0 1.0 8.0
H 0.0 2.0 0.0
H 0.0 2.0 1.0
H 0.0 2.0 2.0
H 0.0 2.0 3.0
H 0.0 2.0 4.0
H 0.0 2.0 5.0
H 0.0 2.0 6.0
H 0.0 2.0 7.0
H 0.0 2.0 8.0
H 0.0 3.0 0.0
H 0.0 3.0 1.0
H 0.0 3.0 2.0
H 0.0 3.0 3.0
H 0.0 3.0 4.0
H 0.0 3.0 5.0
H 0.0 3.0 6.0
H 0.0 3.0 7.0
H 0.0 3.0 8.0
H 0.0 4.0 0.0
H 0.0 4.0 1.0
H 0.0 4.0 2.0
H 0.0 4.0 3.0
H 0.0 4.0 4.0
H 0.0 4.0 5.0
H 0.0 4.0 6.0
H 0.0 4.0 7.0
H 0.0 4.0 8.0
H 0.0 5.0 0.0
H 0.0 5.0 1.0
H 0.0 5.0 2.0
H 0.0 5.0 3.0
H 0.0 5.0 4.0
H 0.0 5.0 5.0
H 0.0 5.0 6.0
H 0.0 5.0 7.0
H 0.0 5.0 8.0
H 0.0 6.0 0.0
H 0.0 6.0 1.0
H 0.0 6.0 2.0
H 0.0 6.0 3.0
H 0.0 6.0 4.0
H 0.0 6.0 5.0
H 0.0 6.0 6.0
H 0.0 6.0 7.0
H 0.0 6.0 8.0
H 0.0 7.0 0.0
H 0.0 7.0 1.0
H 0.0 7.0 2.0
H 0.0 7.0 3.0
H 0.0 7.0 4.0
H 0.0 7.0 5.0
H 0.0 7.0 6.0
H 0.0 7.0 7.0
H 0.0 7.0 8.0
H 0.0 8.0 0.0
H 0.0 8.0 1.0
H 0.0 8.0 2.0
H 0.0 8.0 3.0
H 0.0 8.0 4.0
H 0.0 8.0 5.0
H 0.0 8.0 6.0
H 0.0 8.0 7.0
H 0.0 8.0 8.0
H 1.0 0.0 0.0
H 1.0 0.0 1.0
H 1.0 0.0 2.0
H 1.0 0.0 3.0
H 1.0 0.0 4.0
H 1.0 0.0 5.0
H 1.0 0.0 6.0
H 1.0 0.0 7.0
H 1.0 0.0 8.0
H 1.0 1.0 0.0
H 1.0 1.0 1.0
H 1.0 1.0 2.0
H 1.0 1.0 3.0
H 1.0 1.0 4.0
H 1.0 1.0 5.0
H 1.0 1.0 6.0
H 1.0 1.0 7.0
H 1.0 1.0 8.0
H 1.0 2.0 0.0
H 1.0 2.0 1.0
H 1.0 2.0 2.0
H 1.0 2.0 3.0
H 1.0 2.0 4.0
H 1.0 2.0 5.0
H 1.0 2.0 6.0
H 1.0 2.0 7.0
H 1.0 2.0 8.0
H 1.0 3.0 0.0
H 1.0 3.0 1.0
H 1.0 3.0 2.0
H 1.0 3.0 3.0
H 1.0 3.0 4.0
H 1.0 3.0 5.0
H 1.0 3.0 6.0
H 1.0 3.0 7.0
H 1.0 3.0 8.0
H 1.0 4.0 0.0
H 1.0 4.0 1.0
H 1.0 4.0 2.0
H 1.0 4.0 3.0
H 1.0 4.0 4.0
H 1.0 4.0 5.0
H 1.0 4.0 6.0
H 1.0 4.0 7.0
H 1.0 4.0 8.0
H 1.0 5.0 0.0
H 1.0 5.0 1.0
H 1.0 5.0 2.0
H 1.0 5.0 3.0
H 1.0 5.0 4.0
H 1.0 5.0 5.0
H 1.0 5.0 6.0
H 1.0 5.0 7.0
H 1.0 5.0 8.0
H 1.0 6.0 0.0
H 1.0 6.0 1.0
H 1.0 6.0 2.0
H 1.0 6.0 3.0
H 1.0 6.0 4.0
H 1.0 6.0 5.0
H 1.0 6.0 6.0
H 1.0 6.0 7.0
H 1.0 6.0 8.0
H 1.0 7.0 0.0
H 1.0 7.0 1.0
H 1.0 7.0 2.0
H 1.0 7.0 3.0
H 1.0 7.0 4.0
H 1.0 7.0 5.0
H 1.0 7.0 6.0
H 1.0 7.0 7.0
H 1.0 7.0 8.0
H 1.0 8.0 0.0
H 1.0 8.0 1.0
H 1.0 8.0 2.0
H 1.0 8.0 3.0
H 1.0 8.0 4.0
H 1.0 8.0 5.0
H 1.0 8.0 6.0
H 1.0 8.0 7.0
H 1.0 8.0 8.0
H 2.0 0.0 0.0
H 2.0 0.0 1.0
H 2.0 0.0 2.0
H 2.0 0.0 3.0
H 2.0 0.0 4.0
H 2.0 0.0 5.0
H 2.0 0.0 6.0
H 2.0 0.0 7.0
H 2.0 0.0 8.0
H 2.0 1.0 0.0
H 2.0 1.0 1.0
H 2.0 1.0 2.0
H 2.0 1.0 3.0
H 2.0 1.0 4.0
H 2.0 1.0 5.0
H 2.0 1.0 6.0
H 2.0 1.0 7.0
H 2.0 1.0 8.0
H 2.0 2.0 0.0
H 2.0 2.0 1.0
H 2.0 2.0 2.0
H 2.0 2.0 3.0
H 2.0 2.0 4.0
H 2.0 2.0 5.0
H 2.0 2.0 6.0
H 2.0 2.0 7.0
H 2.0 2.0 8.0
H 2.0 3.0 0.0
H 2.0 3.0 1.0
H 2.0 3.0 2.0
H 2.0 3.0 3.0
H 2.0 3.0 4.0
H 2.0 3.0 5.0
H 2.0 3.0 6.0
H 2.0 3.0 7.0
H 2.0 3.0 8.0
H 2.0 4.0 0.0
H 2.0 4.0 1.0
H 2.0 4.0 2.0
H 2.0 4.0 3.0
H 2.0 4.0 4.0
H 2.0 4.0 5.0
H 2.0 4.0 6.0
H 2.0 4.0 7.0
H 2.0 4.0 8.0
H 2.0 5.0 0.0
H 2.0 5.0 1.0
H 2.0 5.0 2.0
H 2.0 5.0 3.0
H 2.0 5.0 4.0
H 2.0 5.0 5.0
H 2.0 5.0 6.0
H 2.0 5.0 7.0
H 2.0 5.0 8.0
H 2.0 6.0 0.0
H 2.0 6.0 1.0
H 2.0 6.0 2.0
H 2.0 6.0 3.0
H 2.0 6.0 4.0
H 2.0 6.0 5.0
H 2.0 6.0 6.0
H 2.0 6.0 7.0
H 2.0 6.0 8.0
H 2.0 7.0 0.0
H 2.0 7.0 1.0
H 2.0 7.0 2.0
H 2.0 7.0 3.0
H 2.0 7.0 4.0
H 2.0 7.0 5.0
H 2.0 7.0 6.0
H 2.0 7.0 7.0
H 2.0 7.0 8.0
H 2.0 8.0 0.0
H 2.0 8.0 1.0
H 2.0 8.0 2.0
H 2.0 8.0 3.0
H 2.0 8.0 4.0
H 2.0 8.0 5.0
H 2.0 8.0 6.0
H 2.0 8.0 7.0
H 2.0 8.0 8.0
H 3.0 0.0 0.0
H 3.0 0.0 1.0
H 3.0 0.0 2.0
H 3.0 0.0 3.0
H 3.0 0.0 4.0
H 3.0 0.0 5.0
H 3.0 0.0 6.0
H 3.0 0.0 7.0
H 3.0 0.0 8.0
H 3.0 1.0 0.0
H 3.0 1.0 1.0
H 3.0 1.0 2.0
H 3.0 1.0 3.0
H 3.0 1.0 4.0
H 3.0 1.0 5.0
H 3.0 1.0 6.0
H 3.0 1.0 7.0
H 3.0 1.0 8.0
H 3.0 2.0 0.0
H 3.0 2.0 1.0
H 3.0 2.0 2.0
H 3.0 2.0 3.0
H 3.0 2.0 4.0
H 3.0 2.0 5.0
H 3.0 2.0 6.0
H 3.0 2.0 7.0
H 3.0 2.0 8.0
H 3.0 3.0 0.0
H 3.0 3.0 1.0
H 3.0 3.0 2.0
H 3.0 3.0 3.0
H 3.0 3.0 4.0
H 3.0 3.0 5.0
H 3.0 3.0 6.0
H 3.0 3.0 7.0
H 3.0 3.0 8.0
H 3.0 4.0 0.0
H 3.0 4.0 1.0
H 3.0 4.0 2.0
H 3.0 4.0 3.0
H 3.0 4.0 4.0
H 3.0 4.0 5.0
H 3.0 4.0 6.0
H 3.0 4.0 7.0
H 3.0 4.0 8.0
H 3.0 5.0 0.0
H 3.0 5.0 1.0
H 3.0 5.0 2.0
H 3.0 5.0 3.0
H 3.0 5.0 4.0
H 3.0 5.0 5.0
H 3.0 5.0 6.0
H 3.0 5.0 7.0
H 3.0 5.0 8.0
H 3.0 6.0 0.0
H 3.0 6.0 1.0
H 3.0 6.0 2.0
H 3.0 6.0 3.0
H 3.0 6.0 4.0
H 3.0 6.0 5.0
H 3.0 6.0 6.0
H 3.0 6.0 7.0
H 3.0 6.0 8.0
H 3.0 7.0 0.0
H 3.0 7.0 1.0
H 3.0 7.0 2.0
H 3.0 7.0 3.0
H 3.0 7.0 4.0
H 3.0 7.0 5.0
H 3.0 7.0 6.0
H 3.0 7.0 7.0
H 3.0 7.0 8.0
H 3.0 8.0 0.0
H 3.0 8.0 1.0
H 3.0 8.0 2.0
H 3.0 8.0 3.0
H 3.0 8.0 4.0
H 3.0 8.0 5.0
H 3.0 8.0 6.0
H 3.0 8.0 7.0
H 3.0 8.0 8.0
H 4.0 0.0 0.0
H 4.0 0.0 1.0
H 4.0 0.0 2.0
H 4.0 0.0 3.0
H 4.0 0.0 4.0
H 4.0 0.0 5.0
H 4.0 0.0 6.0
H 4.0 0.0 7.0
H 4.0 0.0 8.0
H 4.0 1.0 0.0
H 4.0 1.0 1.0
H 4.0 1.0 2.0
H 4.0 1.0 3.0
H 4.0 1.0 4.0
H 4.0 1.0 5.0
H 4.0 1.0 6.0
H 4.0 1.0 7.0
H 4.0 1.0 8.0
H 4.0 2.0 0.0
H 4.0 2.0 1.0
H 4.0 2.0 2.0
H 4.0 2.0 3.0
H 4.0 2.0 4.0
H 4.0 2.0 5.0
H 4.0 2.0 6.0
H 4.0 2.0 7.0
H 4.0 2.0 8.0
H 4.0 3.0 0.0
H 4.0 3.0 1.0
H 4.0 3.0 2.0
H 4.0 3.0 3.0
H 4.0 3.0 4.0
H 4.0 3.0 5.0
H 4.0 3.0 6.0
H 4.0 3.0 7.0
H 4.0 3.0 8.0
H 4.0 4.0 0.0
H 4.0 4.0 1.0
H 4.0 4.0 2.0
H 4.0 4.0 3.0
H 4.0 4.0 4.0
H 4.0 4.0 5.0
H 4.0 4.0 6.0
H 4.0 4.0 7.0
H 4.0 4.0 8.0
H 4.0 5.0 0.0
H 4.0 5.0 1.0
H 4.0 5.0 2.0
H 4.0 5.0 3.0
H 4.0 5.0 4.0
H 4.0 5.0 5.0
H 4.0 5.0 6.0
H 4.0 5.0 7.0
H 4.0 5.0 8.0
H 4.0 6.0 0.0
H 4.0 6.0 1.0
H 4.0 6.0 2.0
H 4.0 6.0 3.0
H 4.0 6.0 4.0
H 4.0 6.0 5.0
H 4.0 6.0 6.0
H 4.0 6.0 7.0
H 4.0 6.0 8.0
H 4.0 7.0 0.0
H 4.0 7.0 1.0
H 4.0 7.0 2.0
H 4.0 7.0 3.0
H 4.0 7.0 4.0
H 4.0 7.0 5.0
H 4.0 7.0 6.0
H 4.0 7.0 7.0
H 4.0 7.0 8.0
H 4.0 8.0 0.0
H 4.0 8.0 1.0
H 4.0 8.0 2.0
H 4.0 8.0 3.0
H 4.0 8.0 4.0
H 4.0 8.0 5.0
H 4.0 8.0 6.0
H 4.0 8.0 7.0
H 4.0 8.0 8.0
H 5.0 0.0 0.0
H 5.0 0.0 1.0
H 5.0 0.0 2.0
H 5.0 0.0 3.0
H 5.0 0.0 4.0
H 5.0 0.0 5.0
H 5.0 0.0 6.0
H 5.0 0.0 7.0
H 5.0 0.0 8.0
H 5.0 1.0 0.0
H 5.0 1.0 1.0
H 5.0 1.0 2.0
H 5.0 1.0 3.0
H 5.0 1.0 4.0
H 5.0 1.0 5.0
H 5.0 1.0 6.0
H 5.0 1.0 7.0
H 5.0 1.0 8.0
H 5.0 2.0 0.0
H 5.0 2.0 1.0
H 5.0 2.0 2.0
H 5.0 2.0 3.0
H 5.0 2.0 4.0
H 5.0 2.0 5.0
H 5.0 2.0 6.0
H 5.0 2.0 7.0
H 5.0 2.0 8.0
H 5.0 3.0 0.0
H 5.0 3.0 1.0
H 5.0 3.0 2.0
H 5.0 3.0 3.0
H 5.0 3.0 4.0
H 5.0 3.0 5.0
H 5.0 3.0 6.0
H 5.0 3.0 7.0
H 5.0 3.0 8.0
H 5.0 4.0 0.0
H 5.0 4.0 1.0
H 5.0 4.0 2.0
H 5.0 4.0 3.0
H 5.0 4.0 4.0
H 5.0 4.0 5.0
H 5.0 4.0 6.0
H 5.0 4.0 7.0
H 5.0 4.0 8.0
H 5.0 5.0 0.0
H 5.0 5.0 1.0
H 5.0 5.0 2.0
H 5.0 5.0 3.0
H 5.0 5.0 4.0
H 5.0 5.0 5.0
H 5.0 5.0 6.0
H 5.0 5.0 7.0
H 5.0 5.0 8.0
H 5.0 6.0 0.0
H 5.0 6.0 1.0
H 5.0 6.0 2.0
H 5.0 6.0 3.0
H 5.0 6.0 4.0
H 5.0 6.0 5.0
H 5.0 6.0 6.0
H 5.0 6.0 7.0
H 5.0 6.0 8.0
H 5.0 7.0 0.0
H 5.0 7.0 1.0
H 5.0 7.0 2.0
H 5.0 7.0 3.0
H 5.0 7.0 4.0
H 5.0 7.0 5.0
H 5.0 7.0 6.0
H 5.0 7.0 7.0
H 5.0 7.0 8.0
H 5.0 8.0 0.0
H 5.0 8.0 1.0
H 5.0 8.0 2.0
H 5.0 8.0 3.0
H 5.0 8.0 4.0
H 5.0 8.0 5.0
H 5.0 8.0 6.0
H 5.0 8.0 7.0
H 5.0 8.0 8.0
H 6.0 0.0 0.0
H 6.0 0.0 1.0
H 6.0 0.0 2.0
H 6.0 0.0 3.0
H 6.0 0.0 4.0
H 6.0 0.0 5.0
H 6.0 0.0 6.0
H 6.0 0.0 7.0
H 6.0 0.0 8.0
H 6.0 1.0 0.0
H 6.0 1.0 1.0
H 6.0 1.0 2.0
H 6.0 1.0 3.0
H 6.0 1.0 4.0
H 6.0 1.0 5.0
H 6.0 1.0 6.0
H 6.0 1.0 7.0
H 6.0 1.0 8.0
H 6.0 2.0 0.0
H 6.0 2.0 1.0
H 6.0 2.0 2.0
H 6.0 2.0 3.0
H 6.0 2.0 4.0
H 6.0 2.0 5.0
H 6.0 2.0 6.0
H 6.0 2.0 7.0
H 6.0 2.0 8.0
H 6.0 3.0 0.0
H 6.0 3.0 1.0
H 6.0 3.0 2.0
H 6.0 3.0 3.0
H 6.0 3.0 4.0
H 6.0 3.0 5.0
H 6.0 3.0 6.0
H 6.0 3.0 7.0
H 6.0 3.0 8.0
H 6.0 4.0 0.0
H 6.0 4.0 1.0
H 6.0 4.0 2.0
H 6.0 4.0 3.0
H 6.0 4.0 4.0
H 6.0 4.0 5.0
H 6.0 4.0 6.0
H 6.0 4.0 7.0
H 6.0 4.0 8.0
H 6.0 5.0 0.0
H 6.0 5.0 1.0
H 6.0 5.0 2.0
H 6.0 5.0 3.0
H 6.0 5.0 4.0
H 6.0 5.0 5.0
H 6.0 5.0 6.0
H 6.0 5.0 7.0
H 6.0 5.0 8.0
H 6.0 6.0 0.0
H 6.0 6.0 1.0
H 6.0 6.0 2.0
H 6.0 6.0 3.0
H 6.0 6.0 4.0
H 6.0 6.0 5.0
H 6.0 6.0 6.0
H 6.0 6.0 7.0
H 6.0 6.0 8.0
H 6.0 7.0 0.0
H 6.0 7.0 1.0
H 6.0 7.0 2.0
H 6.0 7.0 3.0
H 6.0 7.0 4.0
H 6.0 7.0 5.0
H 6.0 7.0 6.0
H 6.0 7.0 7.0
H 6.0 7.0 8.0
H 6.0 8.0 0.0
H 6.0 8.0 1.0
H 6.0 8.0 2.0
H 6.0 8.0 3.0
H 6.0 8.0 4.0
H 6.0 8.0 5.0
H 6.0 8.0 6.0
H 6.0 8.0 7.0
H 6.0 8.0 8.0
H 7.0 0.0 0.0
H 7.0 0.0 1.0
H 7.0 0.0 2.0
H 7.0 0.0 3.0
H 7.0 0.0 4.0
H 7.0 0.0 5.0
H 7.0 0.0 6.0
H 7.0 0.0 7.0
H 7.0 0.0 8.0
H 7.0 1.0 0.0
H 7.0 1.0 1.0
H 7.0 1.0 2.0
H 7.0 1.0 3.0
H 7.0 1.0 4.0
H 7.0 1.0 5.0
H 7.0 1.0 6.0
H 7.0 1.0 7.0
H 7.0 1.0 8.0
H 7.0 2.0 0.0
H 7.0 2.0 1.0
H 7.0 2.0 2.0
H 7.0 2.0 3.0
H 7.0 2.0 4.0
H 7.0 2.0 5.0
H 7.0 2.0 6.0
H 7.0 2.0 7.0
H 7.0 2.0 8.0
H 7.0 3.0 0.0
H 7.0 3.0 1.0
H 7.0 3.0 2.0
H 7.0 3.0 3.0
H 7.0 3.0 4.0
H 7.0 3.0 5.0
H 7.0 3.0 6.0
H 7.0 3.0 7.0
H 7.0 3.0 8.0
H 7.0 4.0 0.0
H 7.0 4.0 1.0
H 7.0 4.0 2.0
H 7.0 4.0 3.0
H 7.0 4.0 4.0
H 7.0 4.0 5.0
H 7.0 4.0 6.0
H 7.0 4.0 7.0
H 7.0 4.0 8.0
H 7.0 5.0 0.0
H 7.0 5.0 1.0
H 7.0 5.0 2.0
H 7.0 5.0 3.0
H 7.0 5.0 4.0
H 7.0 5.0 5.0
H 7.0 5.0 6.0
H 7.0 5.0 7.0
H 7.0 5.0 8.0
H 7.0 6.0 0.0
H 7.0 6.0 1.0
H 7.0 6.0 2.0
H 7.0 6.0 3.0
H 7.0 6.0 4.0
H 7.0 6.0 5.0
H 7.0 6.0 6.0
H 7.0 6.0 7.0
H 7.0 6.0 8.0
H 7.0 7.0 0.0
H 7.0 7.0 1.0
H 7.0 7.0 2.0
H 7.0 7.0 3.0
H 7.0 7.0 4.0
H 7.0 7.0 5.0
H 7.0 7.0 6.0
H 7.0 7.0 7.0
H 7.0 7.0 8.0
H 7.0 8.0 0.0
H 7.0 8.0 1.0
H 7.0 8.0 2.0
H 7.0 8.0 3.0
H 7.0 8.0 4.0
H 7.0 8.0 5.0
H 7.0 8.0 6.0
H 7.0 8.0 7.0
H 7.0 8.0 8.0
H 8.0 0.0 0.0
H 8.0 0.0 1.0
H 8.0 0.0 2.0
H 8.0 0.0 3.0
H 8.0 0.0 4.0
H 8.0 0.0 5.0
H 8.0 0.0 6.0
H 8.0 0.0 7.0
H 8.0 0.0 8.0
H 8.0 1.0 0.0
H 8.0 1.0 1.0
H 8.0 1.0 2.0
H 8.0 1.0 3.0
H 8.0 1.0 4.0
H 8.0 1.0 5.0
H 8.0 1.0 6.0
H 8.0 1.0 7.0
H 8.0 1.0 8.0
H 8.0 2.0 0.0
H 8.0 2.0 1.0
H 8.0 2.0 2.0
H 8.0 2.0 3.0
H 8.0 2.0 4.0
H 8.0 2.0 5.0
H 8.0 2.0 6.0
H 8.0 2.0 7.0
H 8.0 2.0 8.0
H 8.0 3.0 0.0
H 8.0 3.0 1.0
H 8.0 3.0 2.0
H 8.0 3.0 3.0
H 8.0 3.0 4.0
H 8.0 3.0 5.0
H 8.0 3.0 6.0
H 8.0 3.0 7.0
H 8.0 3.0 8.0
H 8.0 4.0 0.0
H 8.0 4.0 1.0
H 8.0 4.0 2.0
H 8.0 4.0 3.0
H 8.0 4.0 4.0
H 8.0 4.0 5.0
H 8.0 4.0 6.0
H 8.0 4.0 7.0
H 8.0 4.0 8.0
H 8.0 5.0 0.0
H 8.0 5.0 1.0
H 8.0 5.0 2.0
H 8.0 5.0 3.0
H 8.0 5.0 4.0
H 8.0 5.0 5.0
H 8.0 5.0 6.0
H 8.0 5.0 7.0
H 8.0 5.0 8.0
H 8.0 6.0 0.0
H 8.0 6.0 1.0
H 8.0 6.0 2.0
H 8.0 6.0 3.0
H 8.0 6.0 4.0
H 8.0 6.0 5.0
H 8.0 6.0 6.0
H 8.0 6.0 7.0
H 8.0 6.0 8.0
H 8.0 7.0 0.0
H 8.0 7.0 1.0
H 8.0 7.0 2.0
H 8.0 7.0 3.0
H 8.0 7.0 4.0
H 8.0 7.0 5.0
H 8.0 7.0 6.0
H 8.0 7.0 7.0
H 8.0 7.0 8.0
H 8.0 8.0 0.0
H 8.0 8.0 1.0
H 8.0 8.0 2.0
H 8.0 8.0 3.0
H 8.0 8.0 4.0
H 8.0 8.0 5.0
H 8.0 8.0 6.0
H 8.0 8.0 7.0
H 8.0 8.0 8.0
