512
time=0.0
H 0.0 0.0 0.0
H 0.25 0.25 0.25
H 0.0 0.5 0.5
H 0.25 0.75 0.75
H 0.5 0.0 0.5
H 0.75 0.25 0.75
H 0.5 0.5 0.0
H 0.75 0.75 0.25
H 0.0 0.0 1.0
H 0.25 0.25 1.25
H 0.0 0.5 1.5
H 0.25 0.75 1.75
H 0.5 0.0 1.5
H 0.75 0.25 1.75
H 0.5 0.5 1.0
H 0.75 0.75 1.25
H 0.0 0.0 2.0
H 0.25 0.25 2.25
H 0.0 0.5 2.5
H 0.25 0.75 2.75
H 0.5 0.0 2.5
H 0.75 0.25 2.75
H 0.5 0.5 2.0
H 0.75 0.75 2.25
H 0.0 0.0 3.0
H 0.25 0.25 3.25
H 0.0 0.5 3.5
H 0.25 0.75 3.75
H 0.5 0.0 3.5
H 0.75 0.25 3.75
H 0.5 0.5 3.0
H 0.75 0.75 3.25
H 0.0 1.0 0.0
H 0.25 1.25 0.25
H 0.0 1.5 0.5
H 0.25 1.75 0.75
H 0.5 1.0 0.5
H 0.75 1.25 0.75
H 0.5 1.5 0.0
H 0.75 1.75 0.25
H 0.0 1.0 1.0
H 0.25 1.25 1.25
H 0.0 1.5 1.5
H 0.25 1.75 1.75
H 0.5 1.0 1.5
H 0.75 1.25 1.75
H 0.5 1.5 1.0
H 0.75 1.75 1.25
H 0.0 1.0 2.0
H 0.25 1.25 2.25
H 0.0 1.5 2.5
H 0.25 1.75 2.75
H 0.5 1.0 2.5
H 0.75 1.25 2.75
H 0.5 1.5 2.0
H 0.75 1.75 2.25
H 0.0 1.0 3.0
H 0.25 1.25 3.25
H 0.0 1.5 3.5
H 0.25 1.75 3.75
H 0.5 1.0 3.5
H 0.75 1.25 3.75
H 0.5 1.5 3.0
H 0.75 1.75 3.25
H 0.0 2.0 0.0
H 0.25 2.25 0.25
H 0.0 2.5 0.5
H 0.25 2.75 0.75
H 0.5 2.0 0.5
H 0.75 2.25 0.75
H 0.5 2.5 0.0
H 0.75 2.75 0.25
H 0.0 2.0 1.0
H 0.25 2.25 1.25
H 0.0 2.5 1.5
H 0.25 2.75 1.75
H 0.5 2.0 1.5
H 0.75 2.25 1.75
H 0.5 2.5 1.0
H 0.75 2.75 1.25
H 0.0 2.0 2.0
H 0.25 2.25 2.25
H 0.0 2.5 2.5
H 0.25 2.75 2.75
H 0.5 2.0 2.5
H 0.75 2.25 2.75
H 0.5 2.5 2.0
H 0.75 2.75 2.25
H 0.0 2.0 3.0
H 0.25 2.25 3.25
H 0.0 2.5 3.5
H 0.25 2.75 3.75
H 0.5 2.0 3.5
H 0.75 2.25 3.75
H 0.5 2.5 3.0
H 0.75 2.75 3.25
H 0.0 3.0 0.0
H 0.25 3.25 0.25
H 0.0 3.5 0.5
H 0.25 3.75 0.75
H 0.5 3.0 0.5
H 0.75 3.25 0.75
H 0.5 3.5 0.0
H 0.75 3.75 0.25
H 0.0 3.0 1.0
H 0.25 3.25 1.25
H 0.0 3.5 1.5
H 0.25 3.75 1.75
H 0.5 3.0 1.5
H 0.75 3.25 1.75
H 0.5 3.5 1.0
H 0.75 3.75 1.25
H 0.0 3.0 2.0
H 0.25 3.25 2.25
H 0.0 3.5 2.5
H 0.25 3.75 2.75
H 0.5 3.0 2.5
H 0.75 3.25 2.75
H 0.5 3.5 2.0
H 0.75 3.75 2.25
H 0.0 3.0 3.0
H 0.25 3.25 3.25
H 0.0 3.5 3.5
H 0.25 3.75 3.75
H 0.5 3.0 3.5
H 0.75 3.25 3.75
H 0.5 3.5 3.0
H 0.75 3.75 3.25
H 1.0 0.0 0.0
H 1.25 0.25 0.25
H 1.0 0.5 0.5
H 1.25 0.75 0.75
H 1.5 0.0 0.5
H 1.75 0.25 0.75
H 1.5 0.5 0.0
H 1.75 0.75 0.25
H 1.0 0.0 1.0
H 1.25 0.25 1.25
H 1.0 0.5 1.5
H 1.25 0.75 1.75
H 1.5 0.0 1.5
H 1.75 0.25 1.75
H 1.5 0.5 1.0
H 1.75 0.75 1.25
H 1.0 0.0 2.0
H 1.25 0.25 2.25
H 1.0 0.5 2.5
H 1.25 0.75 2.75
H 1.5 0.0 2.5
H 1.75 0.25 2.75
H 1.5 0.5 2.0
H 1.75 0.75 2.25
H 1.0 0.0 3.0
H 1.25 0.25 3.25
H 1.0 0.5 3.5
H 1.25 0.75 3.75
H 1.5 0.0 3.5
H 1.75 0.25 3.75
H 1.5 0.5 3.0
H 1.75 0.75 3.25
H 1.0 1.0 0.0
H 1.25 1.25 0.25
H 1.0 1.5 0.5
H 1.25 1.75 0.75
H 1.5 1.0 0.5
H 1.75 1.25 0.75
H 1.5 1.5 0.0
H 1.75 1.75 0.25
H 1.0 1.0 1.0
H 1.25 1.25 1.25
H 1.0 1.5 1.5
H 1.25 1.75 1.75
H 1.5 1.0 1.5
H 1.75 1.25 1.75
H 1.5 1.5 1.0
H 1.75 1.75 1.25
H 1.0 1.0 2.0
H 1.25 1.25 2.25
H 1.0 1.5 2.5
H 1.25 1.75 2.75
H 1.5 1.0 2.5
H 1.75 1.25 2.75
H 1.5 1.5 2.0
H 1.75 1.75 2.25
H 1.0 1.0 3.0
H 1.25 1.25 3.25
H 1.0 1.5 3.5
H 1.25 1.75 3.75
H 1.5 1.0 3.5
H 1.75 1.25 3.75
H 1.5 1.5 3.0
H 1.75 1.75 3.25
H 1.0 2.0 0.0
H 1.25 2.25 0.25
H 1.0 2.5 0.5
H 1.25 2.75 0.75
H 1.5 2.0 0.5
H 1.75 2.25 0.75
H 1.5 2.5 0.0
H 1.75 2.75 0.25
H 1.0 2.0 1.0
H 1.25 2.25 1.25
H 1.0 2.5 1.5
H 1.25 2.75 1.75
H 1.5 2.0 1.5
H 1.75 2.25 1.75
H 1.5 2.5 1.0
H 1.75 2.75 1.25
H 1.0 2.0 2.0
H 1.25 2.25 2.25
H 1.0 2.5 2.5
H 1.25 2.75 2.75
H 1.5 2.0 2.5
H 1.75 2.25 2.75
H 1.5 2.5 2.0
H 1.75 2.75 2.25
H 1.0 2.0 3.0
H 1.25 2.25 3.25
H 1.0 2.5 3.5
H 1.25 2.75 3.75
H 1.5 2.0 3.5
H 1.75 2.25 3.75
H 1.5 2.5 3.0
H 1.75 2.75 3.25
H 1.0 3.0 0.0
H 1.25 3.25 0.25
H 1.0 3.5 0.5
H 1.25 3.75 0.75
H 1.5 3.0 0.5
H 1.75 3.25 0.75
H 1.5 3.5 0.0
H 1.75 3.75 0.25
H 1.0 3.0 1.0
H 1.25 3.25 1.25
H 1.0 3.5 1.5
H 1.25 3.75 1.75
H 1.5 3.0 1.5
H 1.75 3.25 1.75
H 1.5 3.5 1.0
H 1.75 3.75 1.25
H 1.0 3.0 2.0
H 1.25 3.25 2.25
H 1.0 3.5 2.5
H 1.25 3.75 2.75
H 1.5 3.0 2.5
H 1.75 3.25 2.75
H 1.5 3.5 2.0
H 1.75 3.75 2.25
H 1.0 3.0 3.0
H 1.25 3.25 3.25
H 1.0 3.5 3.5
H 1.25 3.75 3.75
H 1.5 3.0 3.5
H 1.75 3.25 3.75
H 1.5 3.5 3.0
H 1.75 3.75 3.25
H 2.0 0.0 0.0
H 2.25 0.25 0.25
H 2.0 0.5 0.5
H 2.25 0.75 0.75
H 2.5 0.0 0.5
H 2.75 0.25 0.75
H 2.5 0.5 0.0
H 2.75 0.75 0.25
H 2.0 0.0 1.0
H 2.25 0.25 1.25
H 2.0 0.5 1.5
H 2.25 0.75 1.75
H 2.5 0.0 1.5
H 2.75 0.25 1.75
H 2.5 0.5 1.0
H 2.75 0.75 1.25
H 2.0 0.0 2.0
H 2.25 0.25 2.25
H 2.0 0.5 2.5
H 2.25 0.75 2.75
H 2.5 0.0 2.5
H 2.75 0.25 2.75
H 2.5 0.5 2.0
H 2.75 0.75 2.25
H 2.0 0.0 3.0
H 2.25 0.25 3.25
H 2.0 0.5 3.5
H 2.25 0.75 3.75
H 2.5 0.0 3.5
H 2.75 0.25 3.75
H 2.5 0.5 3.0
H 2.75 0.75 3.25
H 2.0 1.0 0.0
H 2.25 1.25 0.25
H 2.0 1.5 0.5
H 2.25 1.75 0.75
H 2.5 1.0 0.5
H 2.75 1.25 0.75
H 2.5 1.5 0.0
H 2.75 1.75 0.25
H 2.0 1.0 1.0
H 2.25 1.25 1.25
H 2.0 1.5 1.5
H 2.25 1.75 1.75
H 2.5 1.0 1.5
H 2.75 1.25 1.75
H 2.5 1.5 1.0
H 2.75 1.75 1.25
H 2.0 1.0 2.0
H 2.25 1.25 2.25
H 2.0 1.5 2.5
H 2.25 1.75 2.75
H 2.5 1.0 2.5
H 2.75 1.25 2.75
H 2.5 1.5 2.0
H 2.75 1.75 2.25
H 2.0 1.0 3.0
H 2.25 1.25 3.25
H 2.0 1.5 3.5
H 2.25 1.75 3.75
H 2.5 1.0 3.5
H 2.75 1.25 3.75
H 2.5 1.5 3.0
H 2.75 1.75 3.25
H 2.0 2.0 0.0
H 2.25 2.25 0.25
H 2.0 2.5 0.5
H 2.25 2.75 0.75
H 2.5 2.0 0.5
H 2.75 2.25 0.75
H 2.5 2.5 0.0
H 2.75 2.75 0.25
H 2.0 2.0 1.0
H 2.25 2.25 1.25
H 2.0 2.5 1.5
H 2.25 2.75 1.75
H 2.5 2.0 1.5
H 2.75 2.25 1.75
H 2.5 2.5 1.0
H 2.75 2.75 1.25
H 2.0 2.0 2.0
H 2.25 2.25 2.25
H 2.0 2.5 2.5
H 2.25 2.75 2.75
H 2.5 2.0 2.5
H 2.75 2.25 2.75
H 2.5 2.5 2.0
H 2.75 2.75 2.25
H 2.0 2.0 3.0
H 2.25 2.25 3.25
H 2.0 2.5 3.5
H 2.25 2.75 3.75
H 2.5 2.0 3.5
H 2.75 2.25 3.75
H 2.5 2.5 3.0
H 2.75 2.75 3.25
H 2.0 3.0 0.0
H 2.25 3.25 0.25
H 2.0 3.5 0.5
H 2.25 3.75 0.75
H 2.5 3.0 0.5
H 2.75 3.25 0.75
H 2.5 3.5 0.0
H 2.75 3.75 0.25
H 2.0 3.0 1.0
H 2.25 3.25 1.25
H 2.0 3.5 1.5
H 2.25 3.75 1.75
H 2.5 3.0 1.5
H 2.75 3.25 1.75
H 2.5 3.5 1.0
H 2.75 3.75 1.25
H 2.0 3.0 2.0
H 2.25 3.25 2.25
H 2.0 3.5 2.5
H 2.25 3.75 2.75
H 2.5 3.0 2.5
H 2.75 3.25 2.75
H 2.5 3.5 2.0
H 2.75 3.75 2.25
H 2.0 3.0 3.0
H 2.25 3.25 3.25
H 2.0 3.5 3.5
H 2.25 3.75 3.75
H 2.5 3.0 3.5
H 2.75 3.25 3.75
H 2.5 3.5 3.0
H 2.75 3.75 3.25
H 3.0 0.0 0.0
H 3.25 0.25 0.25
H 3.0 0.5 0.5
H 3.25 0.75 0.75
H 3.5 0.0 0.5
H 3.75 0.25 0.75
H 3.5 0.5 0.0
H 3.75 0.75 0.25
H 3.0 0.0 1.0
H 3.25 0.25 1.25
H 3.0 0.5 1.5
H 3.25 0.75 1.75
H 3.5 0.0 1.5
H 3.75 0.25 1.75
H 3.5 0.5 1.0
H 3.75 0.75 1.25
H 3.0 0.0 2.0
H 3.25 0.25 2.25
H 3.0 0.5 2.5
H 3.25 0.75 2.75
H 3.5 0.0 2.5
H 3.75 0.25 2.75
H 3.5 0.5 2.0
H 3.75 0.75 2.25
H 3.0 0.0 3.0
H 3.25 0.25 3.25
H 3.0 0.5 3.5
H 3.25 0.75 3.75
H 3.5 0.0 3.5
H 3.75 0.25 3.75
H 3.5 0.5 3.0
H 3.75 0.75 3.25
H 3.0 1.0 0.0
H 3.25 1.25 0.25
H 3.0 1.5 0.5
H 3.25 1.75 0.75
H 3.5 1.0 0.5
H 3.75 1.25 0.75
H 3.5 1.5 0.0
H 3.75 1.75 0.25
H 3.0 1.0 1.0
H 3.25 1.25 1.25
H 3.0 1.5 1.5
H 3.25 1.75 1.75
H 3.5 1.0 1.5
H 3.75 1.25 1.75
H 3.5 1.5 1.0
H 3.75 1.75 1.25
H 3.0 1.0 2.0
H 3.25 1.25 2.25
H 3.0 1.5 2.5
H 3.25 1.75 2.75
H 3.5 1.0 2.5
H 3.75 1.25 2.75
H 3.5 1.5 2.0
H 3.75 1.75 2.25
H 3.0 1.0 3.0
H 3.25 1.25 3.25
H 3.0 1.5 3.5
H 3.25 1.75 3.75
H 3.5 1.0 3.5
H 3.75 1.25 3.75
H 3.5 1.5 3.0
H 3.75 1.75 3.25
H 3.0 2.0 0.0
H 3.25 2.25 0.25
H 3.0 2.5 0.5
H 3.25 2.75 0.75
H 3.5 2.0 0.5
H 3.75 2.25 0.75
H 3.5 2.5 0.0
H 3.75 2.75 0.25
H 3.0 2.0 1.0
H 3.25 2.25 1.25
H 3.0 2.5 1.5
H 3.25 2.75 1.75
H 3.5 2.0 1.5
H 3.75 2.25 1.75
H 3.5 2.5 1.0
H 3.75 2.75 1.25
H 3.0 2.0 2.0
H 3.25 2.25 2.25
H 3.0 2.5 2.5
H 3.25 2.75 2.75
H 3.5 2.0 2.5
H 3.75 2.25 2.75
H 3.5 2.5 2.0
H 3.75 2.75 2.25
H 3.0 2.0 3.0
H 3.25 2.25 3.25
H 3.0 2.5 3.5
H 3.25 2.75 3.75
H 3.5 2.0 3.5
H 3.75 2.25 3.75
H 3.5 2.5 3.0
H 3.75 2.75 3.25
H 3.0 3.0 0.0
H 3.25 3.25 0.25
H 3.0 3.5 0.5
H 3.25 3.75 0.75
H 3.5 3.0 0.5
H 3.75 3.25 0.75
H 3.5 3.5 0.0
H 3.75 3.75 0.25
H 3.0 3.0 1.0
H 3.25 3.25 1.25
H 3.0 3.5 1.5
H 3.25 3.75 1.75
H 3.5 3.0 1.5
H 3.75 3.25 1.75
H 3.5 3.5 1.0
H 3.75 3.75 1.25
H 3.0 3.0 2.0
H 3.25 3.25 2.25
H 3.0 3.5 2.5
H 3.25 3.75 2.75
H 3.5 3.0 2.5
H 3.75 3.25 2.75
H 3.5 3.5 2.0
H 3.75 3.75 2.25
H 3.0 3.0 3.0
H 3.25 3.25 3.25
H 3.0 3.5 3.5
H 3.25 3.75 3.75
H 3.5 3.0 3.5
H 3.75 3.25 3.75
H 3.5 3.5 3.0
H 3.75 3.75 3.25
