512
time=0.0
H 0.0 0.0 0.0
H 1.0 1.0 1.0
H 0.0 2.0 2.0
H 1.0 3.0 3.0
H 2.0 0.0 2.0
H 3.0 1.0 3.0
H 2.0 2.0 0.0
H 3.0 3.0 1.0
H 0.0 0.0 4.0
H 1.0 1.0 5.0
H 0.0 2.0 6.0
H 1.0 3.0 7.0
H 2.0 0.0 6.0
H 3.0 1.0 7.0
H 2.0 2.0 4.0
H 3.0 3.0 5.0
H 0.0 0.0 8.0
H 1.0 1.0 9.0
H 0.0 2.0 10.0
H 1.0 3.0 11.0
H 2.0 0.0 10.0
H 3.0 1.0 11.0
H 2.0 2.0 8.0
H 3.0 3.0 9.0
H 0.0 0.0 12.0
H 1.0 1.0 13.0
H 0.0 2.0 14.0
H 1.0 3.0 15.0
H 2.0 0.0 14.0
H 3.0 1.0 15.0
H 2.0 2.0 12.0
H 3.0 3.0 13.0
H 0.0 4.0 0.0
H 1.0 5.0 1.0
H 0.0 6.0 2.0
H 1.0 7.0 3.0
H 2.0 4.0 2.0
H 3.0 5.0 3.0
H 2.0 6.0 0.0
H 3.0 7.0 1.0
H 0.0 4.0 4.0
H 1.0 5.0 5.0
H 0.0 6.0 6.0
H 1.0 7.0 7.0
H 2.0 4.0 6.0
H 3.0 5.0 7.0
H 2.0 6.0 4.0
H 3.0 7.0 5.0
H 0.0 4.0 8.0
H 1.0 5.0 9.0
H 0.0 6.0 10.0
H 1.0 7.0 11.0
H 2.0 4.0 10.0
H 3.0 5.0 11.0
H 2.0 6.0 8.0
H 3.0 7.0 9.0
H 0.0 4.0 12.0
H 1.0 5.0 13.0
H 0.0 6.0 14.0
H 1.0 7.0 15.0
H 2.0 4.0 14.0
H 3.0 5.0 15.0
H 2.0 6.0 12.0
H 3.0 7.0 13.0
H 0.0 8.0 0.0
H 1.0 9.0 1.0
H 0.0 10.0 2.0
H 1.0 11.0 3.0
H 2.0 8.0 2.0
H 3.0 9.0 3.0
H 2.0 10.0 0.0
H 3.0 11.0 1.0
H 0.0 8.0 4.0
H 1.0 9.0 5.0
H 0.0 10.0 6.0
H 1.0 11.0 7.0
H 2.0 8.0 6.0
H 3.0 9.0 7.0
H 2.0 10.0 4.0
H 3.0 11.0 5.0
H 0.0 8.0 8.0
H 1.0 9.0 9.0
H 0.0 10.0 10.0
H 1.0 11.0 11.0
H 2.0 8.0 10.0
H 3.0 9.0 11.0
H 2.0 10.0 8.0
H 3.0 11.0 9.0
H 0.0 8.0 12.0
H 1.0 9.0 13.0
H 0.0 10.0 14.0
H 1.0 11.0 15.0
H 2.0 8.0 14.0
H 3.0 9.0 15.0
H 2.0 10.0 12.0
H 3.0 11.0 13.0
H 0.0 12.0 0.0
H 1.0 13.0 1.0
H 0.0 14.0 2.0
H 1.0 15.0 3.0
H 2.0 12.0 2.0
H 3.0 13.0 3.0
H 2.0 14.0 0.0
H 3.0 15.0 1.0
H 0.0 12.0 4.0
H 1.0 13.0 5.0
H 0.0 14.0 6.0
H 1.0 15.0 7.0
H 2.0 12.0 6.0
H 3.0 13.0 7.0
H 2.0 14.0 4.0
H 3.0 15.0 5.0
H 0.0 12.0 8.0
H 1.0 13.0 9.0
H 0.0 14.0 10.0
H 1.0 15.0 11.0
H 2.0 12.0 10.0
H 3.0 13.0 11.0
H 2.0 14.0 8.0
H 3.0 15.0 9.0
H 0.0 12.0 12.0
H 1.0 13.0 13.0
H 0.0 14.0 14.0
H 1.0 15.0 15.0
H 2.0 12.0 14.0
H 3.0 13.0 15.0
H 2.0 14.0 12.0
H 3.0 15.0 13.0
H 4.0 0.0 0.0
H 5.0 1.0 1.0
H 4.0 2.0 2.0
H 5.0 3.0 3.0
H 6.0 0.0 2.0
H 7.0 1.0 3.0
H 6.0 2.0 0.0
H 7.0 3.0 1.0
H 4.0 0.0 4.0
H 5.0 1.0 5.0
H 4.0 2.0 6.0
H 5.0 3.0 7.0
H 6.0 0.0 6.0
H 7.0 1.0 7.0
H 6.0 2.0 4.0
H 7.0 3.0 5.0
H 4.0 0.0 8.0
H 5.0 1.0 9.0
H 4.0 2.0 10.0
H 5.0 3.0 11.0
H 6.0 0.0 10.0
H 7.0 1.0 11.0
H 6.0 2.0 8.0
H 7.0 3.0 9.0
H 4.0 0.0 12.0
H 5.0 1.0 13.0
H 4.0 2.0 14.0
H 5.0 3.0 15.0
H 6.0 0.0 14.0
H 7.0 1.0 15.0
H 6.0 2.0 12.0
H 7.0 3.0 13.0
H 4.0 4.0 0.0
H 5.0 5.0 1.0
H 4.0 6.0 2.0
H 5.0 7.0 3.0
H 6.0 4.0 2.0
H 7.0 5.0 3.0
H 6.0 6.0 0.0
H 7.0 7.0 1.0
H 4.0 4.0 4.0
H 5.0 5.0 5.0
H 4.0 6.0 6.0
H 5.0 7.0 7.0
H 6.0 4.0 6.0
H 7.0 5.0 7.0
H 6.0 6.0 4.0
H 7.0 7.0 5.0
H 4.0 4.0 8.0
H 5.0 5.0 9.0
H 4.0 6.0 10.0
H 5.0 7.0 11.0
H 6.0 4.0 10.0
H 7.0 5.0 11.0
H 6.0 6.0 8.0
H 7.0 7.0 9.0
H 4.0 4.0 12.0
H 5.0 5.0 13.0
H 4.0 6.0 14.0
H 5.0 7.0 15.0
H 6.0 4.0 14.0
H 7.0 5.0 15.0
H 6.0 6.0 12.0
H 7.0 7.0 13.0
H 4.0 8.0 0.0
H 5.0 9.0 1.0
H 4.0 10.0 2.0
H 5.0 11.0 3.0
H 6.0 8.0 2.0
H 7.0 9.0 3.0
H 6.0 10.0 0.0
H 7.0 11.0 1.0
H 4.0 8.0 4.0
H 5.0 9.0 5.0
H 4.0 10.0 6.0
H 5.0 11.0 7.0
H 6.0 8.0 6.0
H 7.0 9.0 7.0
H 6.0 10.0 4.0
H 7.0 11.0 5.0
H 4.0 8.0 8.0
H 5.0 9.0 9.0
H 4.0 10.0 10.0
H 5.0 11.0 11.0
H 6.0 8.0 10.0
H 7.0 9.0 11.0
H 6.0 10.0 8.0
H 7.0 11.0 9.0
H 4.0 8.0 12.0
H 5.0 9.0 13.0
H 4.0 10.0 14.0
H 5.0 11.0 15.0
H 6.0 8.0 14.0
H 7.0 9.0 15.0
H 6.0 10.0 12.0
H 7.0 11.0 13.0
H 4.0 12.0 0.0
H 5.0 13.0 1.0
H 4.0 14.0 2.0
H 5.0 15.0 3.0
H 6.0 12.0 2.0
H 7.0 13.0 3.0
H 6.0 14.0 0.0
H 7.0 15.0 1.0
H 4.0 12.0 4.0
H 5.0 13.0 5.0
H 4.0 14.0 6.0
H 5.0 15.0 7.0
H 6.0 12.0 6.0
H 7.0 13.0 7.0
H 6.0 14.0 4.0
H 7.0 15.0 5.0
H 4.0 12.0 8.0
H 5.0 13.0 9.0
H 4.0 14.0 10.0
H 5.0 15.0 11.0
H 6.0 12.0 10.0
H 7.0 13.0 11.0
H 6.0 14.0 8.0
H 7.0 15.0 9.0
H 4.0 12.0 12.0
H 5.0 13.0 13.0
H 4.0 14.0 14.0
H 5.0 15.0 15.0
H 6.0 12.0 14.0
H 7.0 13.0 15.0
H 6.0 14.0 12.0
H 7.0 15.0 13.0
H 8.0 0.0 0.0
H 9.0 1.0 1.0
H 8.0 2.0 2.0
H 9.0 3.0 3.0
H 10.0 0.0 2.0
H 11.0 1.0 3.0
H 10.0 2.0 0.0
H 11.0 3.0 1.0
H 8.0 0.0 4.0
H 9.0 1.0 5.0
H 8.0 2.0 6.0
H 9.0 3.0 7.0
H 10.0 0.0 6.0
H 11.0 1.0 7.0
H 10.0 2.0 4.0
H 11.0 3.0 5.0
H 8.0 0.0 8.0
H 9.0 1.0 9.0
H 8.0 2.0 10.0
H 9.0 3.0 11.0
H 10.0 0.0 10.0
H 11.0 1.0 11.0
H 10.0 2.0 8.0
H 11.0 3.0 9.0
H 8.0 0.0 12.0
H 9.0 1.0 13.0
H 8.0 2.0 14.0
H 9.0 3.0 15.0
H 10.0 0.0 14.0
H 11.0 1.0 15.0
H 10.0 2.0 12.0
H 11.0 3.0 13.0
H 8.0 4.0 0.0
H 9.0 5.0 1.0
H 8.0 6.0 2.0
H 9.0 7.0 3.0
H 10.0 4.0 2.0
H 11.0 5.0 3.0
H 10.0 6.0 0.0
H 11.0 7.0 1.0
H 8.0 4.0 4.0
H 9.0 5.0 5.0
H 8.0 6.0 6.0
H 9.0 7.0 7.0
H 10.0 4.0 6.0
H 11.0 5.0 7.0
H 10.0 6.0 4.0
H 11.0 7.0 5.0
H 8.0 4.0 8.0
H 9.0 5.0 9.0
H 8.0 6.0 10.0
H 9.0 7.0 11.0
H 10.0 4.0 10.0
H 11.0 5.0 11.0
H 10.0 6.0 8.0
H 11.0 7.0 9.0
H 8.0 4.0 12.0
H 9.0 5.0 13.0
H 8.0 6.0 14.0
H 9.0 7.0 15.0
H 10.0 4.0 14.0
H 11.0 5.0 15.0
H 10.0 6.0 12.0
H 11.0 7.0 13.0
H 8.0 8.0 0.0
H 9.0 9.0 1.0
H 8.0 10.0 2.0
H 9.0 11.0 3.0
H 10.0 8.0 2.0
H 11.0 9.0 3.0
H 10.0 10.0 0.0
H 11.0 11.0 1.0
H 8.0 8.0 4.0
H 9.0 9.0 5.0
H 8.0 10.0 6.0
H 9.0 11.0 7.0
H 10.0 8.0 6.0
H 11.0 9.0 7.0
H 10.0 10.0 4.0
H 11.0 11.0 5.0
H 8.0 8.0 8.0
H 9.0 9.0 9.0
H 8.0 10.0 10.0
H 9.0 11.0 11.0
H 10.0 8.0 10.0
H 11.0 9.0 11.0
H 10.0 10.0 8.0
H 11.0 11.0 9.0
H 8.0 8.0 12.0
H 9.0 9.0 13.0
H 8.0 10.0 14.0
H 9.0 11.0 15.0
H 10.0 8.0 14.0
H 11.0 9.0 15.0
H 10.0 10.0 12.0
H 11.0 11.0 13.0
H 8.0 12.0 0.0
H 9.0 13.0 1.0
H 8.0 14.0 2.0
H 9.0 15.0 3.0
H 10.0 12.0 2.0
H 11.0 13.0 3.0
H 10.0 14.0 0.0
H 11.0 15.0 1.0
H 8.0 12.0 4.0
H 9.0 13.0 5.0
H 8.0 14.0 6.0
H 9.0 15.0 7.0
H 10.0 12.0 6.0
H 11.0 13.0 7.0
H 10.0 14.0 4.0
H 11.0 15.0 5.0
H 8.0 12.0 8.0
H 9.0 13.0 9.0
H 8.0 14.0 10.0
H 9.0 15.0 11.0
H 10.0 12.0 10.0
H 11.0 13.0 11.0
H 10.0 14.0 8.0
H 11.0 15.0 9.0
H 8.0 12.0 12.0
H 9.0 13.0 13.0
H 8.0 14.0 14.0
H 9.0 15.0 15.0
H 10.0 12.0 14.0
H 11.0 13.0 15.0
H 10.0 14.0 12.0
H 11.0 15.0 13.0
H 12.0 0.0 0.0
H 13.0 1.0 1.0
H 12.0 2.0 2.0
H 13.0 3.0 3.0
H 14.0 0.0 2.0
H 15.0 1.0 3.0
H 14.0 2.0 0.0
H 15.0 3.0 1.0
H 12.0 0.0 4.0
H 13.0 1.0 5.0
H 12.0 2.0 6.0
H 13.0 3.0 7.0
H 14.0 0.0 6.0
H 15.0 1.0 7.0
H 14.0 2.0 4.0
H 15.0 3.0 5.0
H 12.0 0.0 8.0
H 13.0 1.0 9.0
H 12.0 2.0 10.0
H 13.0 3.0 11.0
H 14.0 0.0 10.0
H 15.0 1.0 11.0
H 14.0 2.0 8.0
H 15.0 3.0 9.0
H 12.0 0.0 12.0
H 13.0 1.0 13.0
H 12.0 2.0 14.0
H 13.0 3.0 15.0
H 14.0 0.0 14.0
H 15.0 1.0 15.0
H 14.0 2.0 12.0
H 15.0 3.0 13.0
H 12.0 4.0 0.0
H 13.0 5.0 1.0
H 12.0 6.0 2.0
H 13.0 7.0 3.0
H 14.0 4.0 2.0
H 15.0 5.0 3.0
H 14.0 6.0 0.0
H 15.0 7.0 1.0
H 12.0 4.0 4.0
H 13.0 5.0 5.0
H 12.0 6.0 6.0
H 13.0 7.0 7.0
H 14.0 4.0 6.0
H 15.0 5.0 7.0
H 14.0 6.0 4.0
H 15.0 7.0 5.0
H 12.0 4.0 8.0
H 13.0 5.0 9.0
H 12.0 6.0 10.0
H 13.0 7.0 11.0
H 14.0 4.0 10.0
H 15.0 5.0 11.0
H 14.0 6.0 8.0
H 15.0 7.0 9.0
H 12.0 4.0 12.0
H 13.0 5.0 13.0
H 12.0 6.0 14.0
H 13.0 7.0 15.0
H 14.0 4.0 14.0
H 15.0 5.0 15.0
H 14.0 6.0 12.0
H 15.0 7.0 13.0
H 12.0 8.0 0.0
H 13.0 9.0 1.0
H 12.0 10.0 2.0
H 13.0 11.0 3.0
H 14.0 8.0 2.0
H 15.0 9.0 3.0
H 14.0 10.0 0.0
H 15.0 11.0 1.0
H 12.0 8.0 4.0
H 13.0 9.0 5.0
H 12.0 10.0 6.0
H 13.0 11.0 7.0
H 14.0 8.0 6.0
H 15.0 9.0 7.0
H 14.0 10.0 4.0
H 15.0 11.0 5.0
H 12.0 8.0 8.0
H 13.0 9.0 9.0
H 12.0 10.0 10.0
H 13.0 11.0 11.0
H 14.0 8.0 10.0
H 15.0 9.0 11.0
H 14.0 10.0 8.0
H 15.0 11.0 9.0
H 12.0 8.0 12.0
H 13.0 9.0 13.0
H 12.0 10.0 14.0
H 13.0 11.0 15.0
H 14.0 8.0 14.0
H 15.0 9.0 15.0
H 14.0 10.0 12.0
H 15.0 11.0 13.0
H 12.0 12.0 0.0
H 13.0 13.0 1.0
H 12.0 14.0 2.0
H 13.0 15.0 3.0
H 14.0 12.0 2.0
H 15.0 13.0 3.0
H 14.0 14.0 0.0
H 15.0 15.0 1.0
H 12.0 12.0 4.0
H 13.0 13.0 5.0
H 12.0 14.0 6.0
H 13.0 15.0 7.0
H 14.0 12.0 6.0
H 15.0 13.0 7.0
H 14.0 14.0 4.0
H 15.0 15.0 5.0
H 12.0 12.0 8.0
H 13.0 13.0 9.0
H 12.0 14.0 10.0
H 13.0 15.0 11.0
H 14.0 12.0 10.0
H 15.0 13.0 11.0
H 14.0 14.0 8.0
H 15.0 15.0 9.0
H 12.0 12.0 12.0
H 13.0 13.0 13.0
H 12.0 14.0 14.0
H 13.0 15.0 15.0
H 14.0 12.0 14.0
H 15.0 13.0 15.0
H 14.0 14.0 12.0
H 15.0 15.0 13.0
